21/7/2019  #1
layer.fieldNameIndex -> layer.dataProvider().fieldnameIndex
QSWATTopology line 520

26/7/2019  #2
wgn files need to be read as fixed length, not with split
convertFromArc.py

26/8/2019  #3
Another instance of #1!!

28/8/2019  #4
getLayerByFilename returns a pair.  type check would find.
delineation.py

30/8/2019  #5
removeFields is case sensitive on field names: use casefold to avoid
QSWATTopology.py

2/9/2019  #6
demNoData set after grid lakes set up.  Moved from SetUp to SetUp0.
QSWATTopology.py

9/10/2019  #7
self.variableCombo -> self._dlg.variableCombo (3 times)
visualise.py

8/11/2019  #8
water body category could be 'unknown'
hrus.py

10/11/2019 #9
failed to define chLink when listing crossing points
delineation.py line 773

12/10/2019 #10
removing point from list after it had been adjusted failed
delineation.py line 772