Version 1.1.0   8 May 2019
--------------------------

Post processing environmental flows added

Journal mode off for writing project database

Fixed multiple reservoir points

Fixed animation selection of gis_ids

QSWAT+ version always updated in project_config

Version 1.0.1   April 29 2019  
-----------------------------

Fixed findMPI bug

Version 1.0.0   March 22 2019
-----------------------------

First official release.
