<?xml version="1.0" encoding="UTF-8"?>
<ui version="4.0">
 <class>SplitDialog</class>
 <widget class="QDialog" name="SplitDialog">
  <property name="geometry">
   <rect>
    <x>0</x>
    <y>0</y>
    <width>336</width>
    <height>270</height>
   </rect>
  </property>
  <property name="windowTitle">
   <string>Split Landuses</string>
  </property>
  <property name="windowIcon">
   <iconset resource="resources.qrc">
    <normaloff>:/plugins/QSWATPlus/swatplus.ico</normaloff>:/plugins/QSWATPlus/swatplus.ico</iconset>
  </property>
  <layout class="QGridLayout" name="gridLayout">
   <item row="0" column="0">
    <widget class="QLabel" name="label_2">
     <property name="inputMethodHints">
      <set>Qt::ImhNone</set>
     </property>
     <property name="text">
      <string>Select landuse
to split</string>
     </property>
     <property name="alignment">
      <set>Qt::AlignCenter</set>
     </property>
    </widget>
   </item>
   <item row="0" column="2" colspan="3">
    <widget class="QLabel" name="label_3">
     <property name="inputMethodHints">
      <set>Qt::ImhNone</set>
     </property>
     <property name="text">
      <string>Select split landuse
to edit</string>
     </property>
     <property name="alignment">
      <set>Qt::AlignCenter</set>
     </property>
    </widget>
   </item>
   <item row="2" column="0">
    <widget class="QComboBox" name="newCombo">
     <property name="insertPolicy">
      <enum>QComboBox::InsertAlphabetically</enum>
     </property>
    </widget>
   </item>
   <item row="3" column="0">
    <widget class="QPushButton" name="addButton">
     <property name="sizePolicy">
      <sizepolicy hsizetype="MinimumExpanding" vsizetype="Fixed">
       <horstretch>0</horstretch>
       <verstretch>0</verstretch>
      </sizepolicy>
     </property>
     <property name="toolTip">
      <string>Add a sub-landuse to the split in the table.</string>
     </property>
     <property name="text">
      <string>Add
sub-landuse</string>
     </property>
    </widget>
   </item>
   <item row="3" column="2" rowspan="3" colspan="3">
    <widget class="QTableWidget" name="table">
     <property name="selectionMode">
      <enum>QAbstractItemView::SingleSelection</enum>
     </property>
     <property name="columnCount">
      <number>3</number>
     </property>
     <attribute name="horizontalHeaderVisible">
      <bool>true</bool>
     </attribute>
     <attribute name="horizontalHeaderDefaultSectionSize">
      <number>75</number>
     </attribute>
     <attribute name="horizontalHeaderMinimumSectionSize">
      <number>20</number>
     </attribute>
     <attribute name="verticalHeaderVisible">
      <bool>false</bool>
     </attribute>
     <attribute name="verticalHeaderDefaultSectionSize">
      <number>20</number>
     </attribute>
     <attribute name="verticalHeaderMinimumSectionSize">
      <number>19</number>
     </attribute>
     <column/>
     <column/>
     <column/>
    </widget>
   </item>
   <item row="4" column="0">
    <widget class="QPushButton" name="deleteButton">
     <property name="sizePolicy">
      <sizepolicy hsizetype="MinimumExpanding" vsizetype="Fixed">
       <horstretch>0</horstretch>
       <verstretch>0</verstretch>
      </sizepolicy>
     </property>
     <property name="toolTip">
      <string>Remove the selected row from the table.  You can select a row by clicking in the table.</string>
     </property>
     <property name="text">
      <string>Delete
sub-landuse</string>
     </property>
    </widget>
   </item>
   <item row="5" column="0">
    <widget class="QPushButton" name="deleteSplitButton">
     <property name="sizePolicy">
      <sizepolicy hsizetype="MinimumExpanding" vsizetype="Fixed">
       <horstretch>0</horstretch>
       <verstretch>0</verstretch>
      </sizepolicy>
     </property>
     <property name="toolTip">
      <string>Clear the table and remove the split from the current list of landuses to split.</string>
     </property>
     <property name="text">
      <string>Delete
split landuse</string>
     </property>
    </widget>
   </item>
   <item row="6" column="2">
    <widget class="QPushButton" name="cancelEditButton">
     <property name="sizePolicy">
      <sizepolicy hsizetype="MinimumExpanding" vsizetype="Fixed">
       <horstretch>0</horstretch>
       <verstretch>0</verstretch>
      </sizepolicy>
     </property>
     <property name="toolTip">
      <string>Clear the table.</string>
     </property>
     <property name="text">
      <string>Cancel
edits</string>
     </property>
    </widget>
   </item>
   <item row="7" column="4">
    <widget class="QPushButton" name="cancelButton">
     <property name="sizePolicy">
      <sizepolicy hsizetype="MinimumExpanding" vsizetype="Fixed">
       <horstretch>0</horstretch>
       <verstretch>0</verstretch>
      </sizepolicy>
     </property>
     <property name="toolTip">
      <string>Leave the set of panduses to spliut as they were when this form was opened and exit.</string>
     </property>
     <property name="text">
      <string>Cancel</string>
     </property>
    </widget>
   </item>
   <item row="2" column="3">
    <widget class="QComboBox" name="splitCombo">
     <property name="sizePolicy">
      <sizepolicy hsizetype="MinimumExpanding" vsizetype="Fixed">
       <horstretch>0</horstretch>
       <verstretch>0</verstretch>
      </sizepolicy>
     </property>
     <property name="insertPolicy">
      <enum>QComboBox::InsertAlphabetically</enum>
     </property>
    </widget>
   </item>
   <item row="2" column="4">
    <spacer name="horizontalSpacer_2">
     <property name="orientation">
      <enum>Qt::Horizontal</enum>
     </property>
     <property name="sizeHint" stdset="0">
      <size>
       <width>40</width>
       <height>20</height>
      </size>
     </property>
    </spacer>
   </item>
   <item row="2" column="2">
    <spacer name="horizontalSpacer">
     <property name="orientation">
      <enum>Qt::Horizontal</enum>
     </property>
     <property name="sizeHint" stdset="0">
      <size>
       <width>40</width>
       <height>20</height>
      </size>
     </property>
    </spacer>
   </item>
   <item row="6" column="3">
    <widget class="QPushButton" name="saveEditButton">
     <property name="sizePolicy">
      <sizepolicy hsizetype="MinimumExpanding" vsizetype="Fixed">
       <horstretch>0</horstretch>
       <verstretch>0</verstretch>
      </sizepolicy>
     </property>
     <property name="toolTip">
      <string>Save the table as a landuse to be split.  You must edit the percentages first so they sum to 100.</string>
     </property>
     <property name="text">
      <string>Save
edits</string>
     </property>
    </widget>
   </item>
   <item row="7" column="3">
    <widget class="QPushButton" name="saveSplitsButton">
     <property name="sizePolicy">
      <sizepolicy hsizetype="MinimumExpanding" vsizetype="Fixed">
       <horstretch>0</horstretch>
       <verstretch>0</verstretch>
      </sizepolicy>
     </property>
     <property name="toolTip">
      <string>Save the current set of split landuses and exit.</string>
     </property>
     <property name="text">
      <string>Save
splits</string>
     </property>
    </widget>
   </item>
  </layout>
 </widget>
 <resources>
  <include location="resources.qrc"/>
 </resources>
 <connections/>
</ui>
