eclipse.preferences.version=1
encoding//QSWATPlus/DBUtils.py=utf-8
encoding//QSWATPlus/QSWATBatch.py=utf-8
encoding//QSWATPlus/QSWATPlus.py=utf-8
encoding//QSWATPlus/QSWATTopology.py=utf-8
encoding//QSWATPlus/QSWATUtils.py=utf-8
encoding//QSWATPlus/TauDEMUtils.py=utf-8
encoding//QSWATPlus/__init__.py=utf-8
encoding//QSWATPlus/about.py=utf-8
encoding//QSWATPlus/aboutdialog.py=utf-8
encoding//QSWATPlus/convertFromArc.py=utf-8
encoding//QSWATPlus/convertdialog.py=utf-8
encoding//QSWATPlus/cythoninit.py=utf-8
encoding//QSWATPlus/dataInC.pyx=utf-8
encoding//QSWATPlus/delineationdialog.py=utf-8
encoding//QSWATPlus/elevationbands.py=utf-8
encoding//QSWATPlus/elevationbandsdialog.py=utf-8
encoding//QSWATPlus/exempt.py=utf-8
encoding//QSWATPlus/exemptdialog.py=utf-8
encoding//QSWATPlus/exporttabledialog.py=utf-8
encoding//QSWATPlus/floodplain.py=utf-8
encoding//QSWATPlus/globals.py=utf-8
encoding//QSWATPlus/graphdialog.py=utf-8
encoding//QSWATPlus/graphdialog1.py=utf-8
encoding//QSWATPlus/hrus.py=utf-8
encoding//QSWATPlus/hrusdialog.py=utf-8
encoding//QSWATPlus/imageio/core/findlib.py=utf-8
encoding//QSWATPlus/jenks.pyx=utf-8
encoding//QSWATPlus/landscape.py=utf-8
encoding//QSWATPlus/landscapedialog.py=utf-8
encoding//QSWATPlus/outletsdialog.py=utf-8
encoding//QSWATPlus/parameters.py=utf-8
encoding//QSWATPlus/parametersdialog.py=utf-8
encoding//QSWATPlus/plugin_upload.py=utf-8
encoding//QSWATPlus/polygonizeInC.pyx=utf-8
encoding//QSWATPlus/polygonizeInC2.pyx=utf-8
encoding//QSWATPlus/qswatdialog.py=utf-8
encoding//QSWATPlus/raster.py=utf-8
encoding//QSWATPlus/runTauDEM.py=utf-8
encoding//QSWATPlus/selectlu.py=utf-8
encoding//QSWATPlus/selectludialog.py=utf-8
encoding//QSWATPlus/selectsubs.py=utf-8
encoding//QSWATPlus/selectsubsdialog.py=utf-8
encoding//QSWATPlus/split.py=utf-8
encoding//QSWATPlus/splitdialog.py=utf-8
encoding//QSWATPlus/ui_convert.py=utf-8
encoding//QSWATPlus/ui_graph.py=utf-8
encoding//QSWATPlus/visualise.py=utf-8
encoding//QSWATPlus/visualisedialog.py=utf-8
encoding/test_dbutils.py=utf-8
encoding/test_polygonize.py=utf-8
encoding/test_polygonizeInC.py=utf-8
encoding/test_polygonizeInC2.py=utf-8
encoding/test_qswatplus.py=utf-8
encoding/tstsoil.py=utf-8
encoding/tstsqljoin.py=utf-8
